data_Ti3CN
_audit_creation_date              2023-10-14
_audit_creation_method            'Materials Studio'
_symmetry_space_group_name_H-M    'P1'
_symmetry_Int_Tables_number       1
_symmetry_cell_setting            triclinic
loop_
_symmetry_equiv_pos_as_xyz
  x,y,z
_cell_length_a                    3.0200
_cell_length_b                    3.0200
_cell_length_c                    19.3500
_cell_angle_alpha                 90.0000
_cell_angle_beta                  90.0000
_cell_angle_gamma                 120.0000
loop_
_atom_site_label
_atom_site_type_symbol
_atom_site_fract_x
_atom_site_fract_y
_atom_site_fract_z
_atom_site_U_iso_or_equiv
_atom_site_adp_type
_atom_site_occupancy
Ti1    Ti    0.00000   0.00000   0.00000   0.00000  Uiso   1.00
Ti2    Ti    0.00000   0.00000   0.50000   0.00000  Uiso   1.00
N3     N     0.33333   0.66667   0.08333   0.00000  Uiso   1.00
N4     N     0.66667   0.33333   0.58333   0.00000  Uiso   1.00
C5     C     0.66667   0.33333   0.91667   0.00000  Uiso   1.00
C6     C     0.33333   0.66667   0.41667   0.00000  Uiso   1.00
Ti7    Ti    0.66667   0.33333   0.16667   0.00000  Uiso   1.00
Ti8    Ti    0.33333   0.66667   0.66667   0.00000  Uiso   1.00
Ti9    Ti    0.33333   0.66667   0.83333   0.00000  Uiso   1.00
Ti10   Ti    0.66667   0.33333   0.33333   0.00000  Uiso   1.00
