data_Ti3CN_mono
_audit_creation_date              2023-10-14
_audit_creation_method            'Materials Studio'
_symmetry_space_group_name_H-M    'P1'
_symmetry_Int_Tables_number       1
_symmetry_cell_setting            triclinic
loop_
_symmetry_equiv_pos_as_xyz
  x,y,z
_cell_length_a                    21.1400
_cell_length_b                    21.1400
_cell_length_c                    19.3500
_cell_angle_alpha                 90.0000
_cell_angle_beta                  90.0000
_cell_angle_gamma                 120.0000
loop_
_atom_site_label
_atom_site_type_symbol
_atom_site_fract_x
_atom_site_fract_y
_atom_site_fract_z
_atom_site_U_iso_or_equiv
_atom_site_adp_type
_atom_site_occupancy
Ti1    Ti    0.00000   0.00000   0.50000   0.00000  Uiso   1.00
N2     N     0.09524   0.04762   0.58333   0.00000  Uiso   1.00
C3     C     0.04762   0.09524   0.41667   0.00000  Uiso   1.00
Ti4    Ti    0.04762   0.09524   0.66667   0.00000  Uiso   1.00
Ti5    Ti    0.09524   0.04762   0.33333   0.00000  Uiso   1.00
Ti6    Ti    0.14286   0.00000   0.50000   0.00000  Uiso   1.00
N7     N     0.23810   0.04762   0.58333   0.00000  Uiso   1.00
C8     C     0.19048   0.09524   0.41667   0.00000  Uiso   1.00
Ti9    Ti    0.19048   0.09524   0.66667   0.00000  Uiso   1.00
Ti10   Ti    0.23810   0.04762   0.33333   0.00000  Uiso   1.00
Ti11   Ti    0.28571   0.00000   0.50000   0.00000  Uiso   1.00
N12    N     0.38095   0.04762   0.58333   0.00000  Uiso   1.00
C13    C     0.33333   0.09524   0.41667   0.00000  Uiso   1.00
Ti14   Ti    0.33333   0.09524   0.66667   0.00000  Uiso   1.00
Ti15   Ti    0.38095   0.04762   0.33333   0.00000  Uiso   1.00
Ti16   Ti    0.42857   0.00000   0.50000   0.00000  Uiso   1.00
N17    N     0.52381   0.04762   0.58333   0.00000  Uiso   1.00
C18    C     0.47619   0.09524   0.41667   0.00000  Uiso   1.00
Ti19   Ti    0.47619   0.09524   0.66667   0.00000  Uiso   1.00
Ti20   Ti    0.52381   0.04762   0.33333   0.00000  Uiso   1.00
Ti21   Ti    0.57143   0.00000   0.50000   0.00000  Uiso   1.00
N22    N     0.66667   0.04762   0.58333   0.00000  Uiso   1.00
C23    C     0.61905   0.09524   0.41667   0.00000  Uiso   1.00
Ti24   Ti    0.61905   0.09524   0.66667   0.00000  Uiso   1.00
Ti25   Ti    0.66667   0.04762   0.33333   0.00000  Uiso   1.00
Ti26   Ti    0.71429   0.00000   0.50000   0.00000  Uiso   1.00
N27    N     0.80952   0.04762   0.58333   0.00000  Uiso   1.00
C28    C     0.76190   0.09524   0.41667   0.00000  Uiso   1.00
Ti29   Ti    0.76190   0.09524   0.66667   0.00000  Uiso   1.00
Ti30   Ti    0.80952   0.04762   0.33333   0.00000  Uiso   1.00
Ti31   Ti    0.85714   0.00000   0.50000   0.00000  Uiso   1.00
N32    N     0.95238   0.04762   0.58333   0.00000  Uiso   1.00
C33    C     0.90476   0.09524   0.41667   0.00000  Uiso   1.00
Ti34   Ti    0.90476   0.09524   0.66667   0.00000  Uiso   1.00
Ti35   Ti    0.95238   0.04762   0.33333   0.00000  Uiso   1.00
Ti36   Ti    0.00000   0.14286   0.50000   0.00000  Uiso   1.00
N37    N     0.09524   0.19048   0.58333   0.00000  Uiso   1.00
C38    C     0.04762   0.23810   0.41667   0.00000  Uiso   1.00
Ti39   Ti    0.04762   0.23810   0.66667   0.00000  Uiso   1.00
Ti40   Ti    0.09524   0.19048   0.33333   0.00000  Uiso   1.00
Ti41   Ti    0.14286   0.14286   0.50000   0.00000  Uiso   1.00
N42    N     0.23810   0.19048   0.58333   0.00000  Uiso   1.00
C43    C     0.19048   0.23810   0.41667   0.00000  Uiso   1.00
Ti44   Ti    0.19048   0.23810   0.66667   0.00000  Uiso   1.00
Ti45   Ti    0.23810   0.19048   0.33333   0.00000  Uiso   1.00
Ti46   Ti    0.28571   0.14286   0.50000   0.00000  Uiso   1.00
N47    N     0.38095   0.19048   0.58333   0.00000  Uiso   1.00
C48    C     0.33333   0.23810   0.41667   0.00000  Uiso   1.00
Ti49   Ti    0.33333   0.23810   0.66667   0.00000  Uiso   1.00
Ti50   Ti    0.38095   0.19048   0.33333   0.00000  Uiso   1.00
Ti51   Ti    0.42857   0.14286   0.50000   0.00000  Uiso   1.00
N52    N     0.52381   0.19048   0.58333   0.00000  Uiso   1.00
C53    C     0.47619   0.23810   0.41667   0.00000  Uiso   1.00
Ti54   Ti    0.47619   0.23810   0.66667   0.00000  Uiso   1.00
Ti55   Ti    0.52381   0.19048   0.33333   0.00000  Uiso   1.00
Ti56   Ti    0.57143   0.14286   0.50000   0.00000  Uiso   1.00
N57    N     0.66667   0.19048   0.58333   0.00000  Uiso   1.00
C58    C     0.61905   0.23810   0.41667   0.00000  Uiso   1.00
Ti59   Ti    0.61905   0.23810   0.66667   0.00000  Uiso   1.00
Ti60   Ti    0.66667   0.19048   0.33333   0.00000  Uiso   1.00
Ti61   Ti    0.71429   0.14286   0.50000   0.00000  Uiso   1.00
N62    N     0.80952   0.19048   0.58333   0.00000  Uiso   1.00
C63    C     0.76190   0.23810   0.41667   0.00000  Uiso   1.00
Ti64   Ti    0.76190   0.23810   0.66667   0.00000  Uiso   1.00
Ti65   Ti    0.80952   0.19048   0.33333   0.00000  Uiso   1.00
Ti66   Ti    0.85714   0.14286   0.50000   0.00000  Uiso   1.00
N67    N     0.95238   0.19048   0.58333   0.00000  Uiso   1.00
C68    C     0.90476   0.23810   0.41667   0.00000  Uiso   1.00
Ti69   Ti    0.90476   0.23810   0.66667   0.00000  Uiso   1.00
Ti70   Ti    0.95238   0.19048   0.33333   0.00000  Uiso   1.00
Ti71   Ti    0.00000   0.28571   0.50000   0.00000  Uiso   1.00
N72    N     0.09524   0.33333   0.58333   0.00000  Uiso   1.00
C73    C     0.04762   0.38095   0.41667   0.00000  Uiso   1.00
Ti74   Ti    0.04762   0.38095   0.66667   0.00000  Uiso   1.00
Ti75   Ti    0.09524   0.33333   0.33333   0.00000  Uiso   1.00
Ti76   Ti    0.14286   0.28571   0.50000   0.00000  Uiso   1.00
N77    N     0.23810   0.33333   0.58333   0.00000  Uiso   1.00
C78    C     0.19048   0.38095   0.41667   0.00000  Uiso   1.00
Ti79   Ti    0.19048   0.38095   0.66667   0.00000  Uiso   1.00
Ti80   Ti    0.23810   0.33333   0.33333   0.00000  Uiso   1.00
Ti81   Ti    0.28571   0.28571   0.50000   0.00000  Uiso   1.00
N82    N     0.38095   0.33333   0.58333   0.00000  Uiso   1.00
C83    C     0.33333   0.38095   0.41667   0.00000  Uiso   1.00
Ti84   Ti    0.33333   0.38095   0.66667   0.00000  Uiso   1.00
Ti85   Ti    0.38095   0.33333   0.33333   0.00000  Uiso   1.00
Ti86   Ti    0.42857   0.28571   0.50000   0.00000  Uiso   1.00
N87    N     0.52381   0.33333   0.58333   0.00000  Uiso   1.00
C88    C     0.47619   0.38095   0.41667   0.00000  Uiso   1.00
Ti89   Ti    0.47619   0.38095   0.66667   0.00000  Uiso   1.00
Ti90   Ti    0.52381   0.33333   0.33333   0.00000  Uiso   1.00
Ti91   Ti    0.57143   0.28571   0.50000   0.00000  Uiso   1.00
N92    N     0.66667   0.33333   0.58333   0.00000  Uiso   1.00
C93    C     0.61905   0.38095   0.41667   0.00000  Uiso   1.00
Ti94   Ti    0.61905   0.38095   0.66667   0.00000  Uiso   1.00
Ti95   Ti    0.66667   0.33333   0.33333   0.00000  Uiso   1.00
Ti96   Ti    0.71429   0.28571   0.50000   0.00000  Uiso   1.00
N97    N     0.80952   0.33333   0.58333   0.00000  Uiso   1.00
C98    C     0.76190   0.38095   0.41667   0.00000  Uiso   1.00
Ti99   Ti    0.76190   0.38095   0.66667   0.00000  Uiso   1.00
Ti100  Ti    0.80952   0.33333   0.33333   0.00000  Uiso   1.00
Ti101  Ti    0.85714   0.28571   0.50000   0.00000  Uiso   1.00
N102   N     0.95238   0.33333   0.58333   0.00000  Uiso   1.00
C103   C     0.90476   0.38095   0.41667   0.00000  Uiso   1.00
Ti104  Ti    0.90476   0.38095   0.66667   0.00000  Uiso   1.00
Ti105  Ti    0.95238   0.33333   0.33333   0.00000  Uiso   1.00
Ti106  Ti    0.00000   0.42857   0.50000   0.00000  Uiso   1.00
N107   N     0.09524   0.47619   0.58333   0.00000  Uiso   1.00
C108   C     0.04762   0.52381   0.41667   0.00000  Uiso   1.00
Ti109  Ti    0.04762   0.52381   0.66667   0.00000  Uiso   1.00
Ti110  Ti    0.09524   0.47619   0.33333   0.00000  Uiso   1.00
Ti111  Ti    0.14286   0.42857   0.50000   0.00000  Uiso   1.00
N112   N     0.23810   0.47619   0.58333   0.00000  Uiso   1.00
C113   C     0.19048   0.52381   0.41667   0.00000  Uiso   1.00
Ti114  Ti    0.19048   0.52381   0.66667   0.00000  Uiso   1.00
Ti115  Ti    0.23810   0.47619   0.33333   0.00000  Uiso   1.00
Ti116  Ti    0.28571   0.42857   0.50000   0.00000  Uiso   1.00
N117   N     0.38095   0.47619   0.58333   0.00000  Uiso   1.00
C118   C     0.33333   0.52381   0.41667   0.00000  Uiso   1.00
Ti119  Ti    0.33333   0.52381   0.66667   0.00000  Uiso   1.00
Ti120  Ti    0.38095   0.47619   0.33333   0.00000  Uiso   1.00
Ti121  Ti    0.42857   0.42857   0.50000   0.00000  Uiso   1.00
N122   N     0.52381   0.47619   0.58333   0.00000  Uiso   1.00
C123   C     0.47619   0.52381   0.41667   0.00000  Uiso   1.00
Ti124  Ti    0.47619   0.52381   0.66667   0.00000  Uiso   1.00
Ti125  Ti    0.52381   0.47619   0.33333   0.00000  Uiso   1.00
Ti126  Ti    0.57143   0.42857   0.50000   0.00000  Uiso   1.00
N127   N     0.66667   0.47619   0.58333   0.00000  Uiso   1.00
C128   C     0.61905   0.52381   0.41667   0.00000  Uiso   1.00
Ti129  Ti    0.61905   0.52381   0.66667   0.00000  Uiso   1.00
Ti130  Ti    0.66667   0.47619   0.33333   0.00000  Uiso   1.00
Ti131  Ti    0.71429   0.42857   0.50000   0.00000  Uiso   1.00
N132   N     0.80952   0.47619   0.58333   0.00000  Uiso   1.00
C133   C     0.76190   0.52381   0.41667   0.00000  Uiso   1.00
Ti134  Ti    0.76190   0.52381   0.66667   0.00000  Uiso   1.00
Ti135  Ti    0.80952   0.47619   0.33333   0.00000  Uiso   1.00
Ti136  Ti    0.85714   0.42857   0.50000   0.00000  Uiso   1.00
N137   N     0.95238   0.47619   0.58333   0.00000  Uiso   1.00
C138   C     0.90476   0.52381   0.41667   0.00000  Uiso   1.00
Ti139  Ti    0.90476   0.52381   0.66667   0.00000  Uiso   1.00
Ti140  Ti    0.95238   0.47619   0.33333   0.00000  Uiso   1.00
Ti141  Ti    0.00000   0.57143   0.50000   0.00000  Uiso   1.00
N142   N     0.09524   0.61905   0.58333   0.00000  Uiso   1.00
C143   C     0.04762   0.66667   0.41667   0.00000  Uiso   1.00
Ti144  Ti    0.04762   0.66667   0.66667   0.00000  Uiso   1.00
Ti145  Ti    0.09524   0.61905   0.33333   0.00000  Uiso   1.00
Ti146  Ti    0.14286   0.57143   0.50000   0.00000  Uiso   1.00
N147   N     0.23810   0.61905   0.58333   0.00000  Uiso   1.00
C148   C     0.19048   0.66667   0.41667   0.00000  Uiso   1.00
Ti149  Ti    0.19048   0.66667   0.66667   0.00000  Uiso   1.00
Ti150  Ti    0.23810   0.61905   0.33333   0.00000  Uiso   1.00
Ti151  Ti    0.28571   0.57143   0.50000   0.00000  Uiso   1.00
N152   N     0.38095   0.61905   0.58333   0.00000  Uiso   1.00
C153   C     0.33333   0.66667   0.41667   0.00000  Uiso   1.00
Ti154  Ti    0.33333   0.66667   0.66667   0.00000  Uiso   1.00
Ti155  Ti    0.38095   0.61905   0.33333   0.00000  Uiso   1.00
Ti156  Ti    0.42857   0.57143   0.50000   0.00000  Uiso   1.00
N157   N     0.52381   0.61905   0.58333   0.00000  Uiso   1.00
C158   C     0.47619   0.66667   0.41667   0.00000  Uiso   1.00
Ti159  Ti    0.47619   0.66667   0.66667   0.00000  Uiso   1.00
Ti160  Ti    0.52381   0.61905   0.33333   0.00000  Uiso   1.00
Ti161  Ti    0.57143   0.57143   0.50000   0.00000  Uiso   1.00
N162   N     0.66667   0.61905   0.58333   0.00000  Uiso   1.00
C163   C     0.61905   0.66667   0.41667   0.00000  Uiso   1.00
Ti164  Ti    0.61905   0.66667   0.66667   0.00000  Uiso   1.00
Ti165  Ti    0.66667   0.61905   0.33333   0.00000  Uiso   1.00
Ti166  Ti    0.71429   0.57143   0.50000   0.00000  Uiso   1.00
N167   N     0.80952   0.61905   0.58333   0.00000  Uiso   1.00
C168   C     0.76190   0.66667   0.41667   0.00000  Uiso   1.00
Ti169  Ti    0.76190   0.66667   0.66667   0.00000  Uiso   1.00
Ti170  Ti    0.80952   0.61905   0.33333   0.00000  Uiso   1.00
Ti171  Ti    0.85714   0.57143   0.50000   0.00000  Uiso   1.00
N172   N     0.95238   0.61905   0.58333   0.00000  Uiso   1.00
C173   C     0.90476   0.66667   0.41667   0.00000  Uiso   1.00
Ti174  Ti    0.90476   0.66667   0.66667   0.00000  Uiso   1.00
Ti175  Ti    0.95238   0.61905   0.33333   0.00000  Uiso   1.00
Ti176  Ti    0.00000   0.71429   0.50000   0.00000  Uiso   1.00
N177   N     0.09524   0.76190   0.58333   0.00000  Uiso   1.00
C178   C     0.04762   0.80952   0.41667   0.00000  Uiso   1.00
Ti179  Ti    0.04762   0.80952   0.66667   0.00000  Uiso   1.00
Ti180  Ti    0.09524   0.76190   0.33333   0.00000  Uiso   1.00
Ti181  Ti    0.14286   0.71429   0.50000   0.00000  Uiso   1.00
N182   N     0.23810   0.76190   0.58333   0.00000  Uiso   1.00
C183   C     0.19048   0.80952   0.41667   0.00000  Uiso   1.00
Ti184  Ti    0.19048   0.80952   0.66667   0.00000  Uiso   1.00
Ti185  Ti    0.23810   0.76190   0.33333   0.00000  Uiso   1.00
Ti186  Ti    0.28571   0.71429   0.50000   0.00000  Uiso   1.00
N187   N     0.38095   0.76190   0.58333   0.00000  Uiso   1.00
C188   C     0.33333   0.80952   0.41667   0.00000  Uiso   1.00
Ti189  Ti    0.33333   0.80952   0.66667   0.00000  Uiso   1.00
Ti190  Ti    0.38095   0.76190   0.33333   0.00000  Uiso   1.00
Ti191  Ti    0.42857   0.71429   0.50000   0.00000  Uiso   1.00
N192   N     0.52381   0.76190   0.58333   0.00000  Uiso   1.00
C193   C     0.47619   0.80952   0.41667   0.00000  Uiso   1.00
Ti194  Ti    0.47619   0.80952   0.66667   0.00000  Uiso   1.00
Ti195  Ti    0.52381   0.76190   0.33333   0.00000  Uiso   1.00
Ti196  Ti    0.57143   0.71429   0.50000   0.00000  Uiso   1.00
N197   N     0.66667   0.76190   0.58333   0.00000  Uiso   1.00
C198   C     0.61905   0.80952   0.41667   0.00000  Uiso   1.00
Ti199  Ti    0.61905   0.80952   0.66667   0.00000  Uiso   1.00
Ti200  Ti    0.66667   0.76190   0.33333   0.00000  Uiso   1.00
Ti201  Ti    0.71429   0.71429   0.50000   0.00000  Uiso   1.00
N202   N     0.80952   0.76190   0.58333   0.00000  Uiso   1.00
C203   C     0.76190   0.80952   0.41667   0.00000  Uiso   1.00
Ti204  Ti    0.76190   0.80952   0.66667   0.00000  Uiso   1.00
Ti205  Ti    0.80952   0.76190   0.33333   0.00000  Uiso   1.00
Ti206  Ti    0.85714   0.71429   0.50000   0.00000  Uiso   1.00
N207   N     0.95238   0.76190   0.58333   0.00000  Uiso   1.00
C208   C     0.90476   0.80952   0.41667   0.00000  Uiso   1.00
Ti209  Ti    0.90476   0.80952   0.66667   0.00000  Uiso   1.00
Ti210  Ti    0.95238   0.76190   0.33333   0.00000  Uiso   1.00
Ti211  Ti    0.00000   0.85714   0.50000   0.00000  Uiso   1.00
N212   N     0.09524   0.90476   0.58333   0.00000  Uiso   1.00
C213   C     0.04762   0.95238   0.41667   0.00000  Uiso   1.00
Ti214  Ti    0.04762   0.95238   0.66667   0.00000  Uiso   1.00
Ti215  Ti    0.09524   0.90476   0.33333   0.00000  Uiso   1.00
Ti216  Ti    0.14286   0.85714   0.50000   0.00000  Uiso   1.00
N217   N     0.23810   0.90476   0.58333   0.00000  Uiso   1.00
C218   C     0.19048   0.95238   0.41667   0.00000  Uiso   1.00
Ti219  Ti    0.19048   0.95238   0.66667   0.00000  Uiso   1.00
Ti220  Ti    0.23810   0.90476   0.33333   0.00000  Uiso   1.00
Ti221  Ti    0.28571   0.85714   0.50000   0.00000  Uiso   1.00
N222   N     0.38095   0.90476   0.58333   0.00000  Uiso   1.00
C223   C     0.33333   0.95238   0.41667   0.00000  Uiso   1.00
Ti224  Ti    0.33333   0.95238   0.66667   0.00000  Uiso   1.00
Ti225  Ti    0.38095   0.90476   0.33333   0.00000  Uiso   1.00
Ti226  Ti    0.42857   0.85714   0.50000   0.00000  Uiso   1.00
N227   N     0.52381   0.90476   0.58333   0.00000  Uiso   1.00
C228   C     0.47619   0.95238   0.41667   0.00000  Uiso   1.00
Ti229  Ti    0.47619   0.95238   0.66667   0.00000  Uiso   1.00
Ti230  Ti    0.52381   0.90476   0.33333   0.00000  Uiso   1.00
Ti231  Ti    0.57143   0.85714   0.50000   0.00000  Uiso   1.00
N232   N     0.66667   0.90476   0.58333   0.00000  Uiso   1.00
C233   C     0.61905   0.95238   0.41667   0.00000  Uiso   1.00
Ti234  Ti    0.61905   0.95238   0.66667   0.00000  Uiso   1.00
Ti235  Ti    0.66667   0.90476   0.33333   0.00000  Uiso   1.00
Ti236  Ti    0.71429   0.85714   0.50000   0.00000  Uiso   1.00
N237   N     0.80952   0.90476   0.58333   0.00000  Uiso   1.00
C238   C     0.76190   0.95238   0.41667   0.00000  Uiso   1.00
Ti239  Ti    0.76190   0.95238   0.66667   0.00000  Uiso   1.00
Ti240  Ti    0.80952   0.90476   0.33333   0.00000  Uiso   1.00
Ti241  Ti    0.85714   0.85714   0.50000   0.00000  Uiso   1.00
N242   N     0.95238   0.90476   0.58333   0.00000  Uiso   1.00
C243   C     0.90476   0.95238   0.41667   0.00000  Uiso   1.00
Ti244  Ti    0.90476   0.95238   0.66667   0.00000  Uiso   1.00
Ti245  Ti    0.95238   0.90476   0.33333   0.00000  Uiso   1.00
